768
 
C 5	11.3273	0.683766
C 5	13.7624	0.714307
C 5	16.2376	0.714305
C 5	18.6727	0.683762
C 5	12.5312	1.41728
C 5	15	1.42705
C 5	17.4688	1.41728
C 5	12.5252	2.85587
C 5	15	2.84295
C 5	17.4748	2.85587
C 5	11.3301	3.58121
C 5	13.7654	3.55805
C 5	16.2346	3.55805
C 5	18.6699	3.58121
C 5	11.309	4.97077
C 5	13.7668	4.97757
C 5	16.2332	4.97757
C 5	18.691	4.97077
C 5	10.083	5.69477
C 5	12.5398	5.6907
C 5	15	5.68879
C 5	17.4602	5.6907
C 5	19.917	5.69477
C 5	10.0738	7.05604
C 5	12.5274	7.10842
C 5	15	7.10191
C 5	17.4726	7.10842
C 5	19.9262	7.05604
C 5	11.2857	7.80986
C 5	13.7647	7.81388
C 5	16.2353	7.81388
C 5	18.7143	7.80986
C 5	11.2857	9.23014
C 5	13.7647	9.22612
C 5	16.2353	9.22612
C 5	18.7143	9.23014
C 5	10.0738	9.98396
C 5	12.5274	9.93158
C 5	15	9.93809
C 5	17.4726	9.93158
C 5	19.9262	9.98396
C 5	10.0829	11.3452
C 5	12.5398	11.3493
C 5	15	11.3512
C 5	17.4602	11.3493
C 5	19.917	11.3452
C 5	11.309	12.0692
C 5	13.7668	12.0624
C 5	16.2332	12.0624
C 5	18.691	12.0692
C 5	11.3301	13.4588
C 5	13.7654	13.4819
C 5	16.2346	13.4819
C 5	18.6699	13.4588
C 5	12.5252	14.1841
C 5	15	14.197
C 5	17.4748	14.1841
C 5	12.5312	15.6227
C 5	15	15.613
C 5	17.4688	15.6227
C 5	11.3273	16.3562
C 5	13.7624	16.3257
C 5	16.2376	16.3257
C 5	18.6727	16.3562
C 5	11.3273	17.7238
C 5	13.7624	17.7543
C 5	16.2376	17.7543
C 5	18.6727	17.7238
C 5	12.5312	18.4573
C 5	15	18.4671
C 5	17.4688	18.4573
C 5	12.5252	19.8959
C 5	15	19.883
C 5	17.4748	19.8959
C 5	11.3301	20.6212
C 5	13.7654	20.5981
C 5	16.2346	20.5981
C 5	18.6699	20.6212
C 5	11.309	22.0108
C 5	13.7668	22.0176
C 5	16.2332	22.0176
C 5	18.691	22.0108
C 5	10.083	22.7348
C 5	12.5398	22.7307
C 5	15	22.7288
C 5	17.4602	22.7307
C 5	19.917	22.7348
C 5	10.0738	24.096
C 5	12.5274	24.1484
C 5	15	24.1419
C 5	17.4726	24.1484
C 5	19.9262	24.096
C 5	11.2857	24.8499
C 5	13.7647	24.8539
C 5	16.2353	24.8539
C 5	18.7143	24.8499
C 5	11.2857	26.2701
C 5	13.7647	26.2661
C 5	16.2353	26.2661
C 5	18.7143	26.2701
C 5	10.0738	27.024
C 5	12.5274	26.9716
C 5	15	26.9781
C 5	17.4726	26.9716
C 5	19.9262	27.024
C 5	10.0829	28.3852
C 5	12.5398	28.3893
C 5	15	28.3912
C 5	17.4602	28.3893
C 5	19.917	28.3852
C 5	11.309	29.1092
C 5	13.7668	29.1024
C 5	16.2332	29.1024
C 5	18.691	29.1092
C 5	11.3301	30.4988
C 5	13.7654	30.5219
C 5	16.2346	30.5219
C 5	18.6699	30.4988
C 5	12.5252	31.2241
C 5	15	31.237
C 5	17.4748	31.2241
C 5	12.5312	32.6627
C 5	15	32.653
C 5	17.4688	32.6627
C 5	11.3273	33.3962
C 5	13.7624	33.3657
C 5	16.2376	33.3657
C 5	18.6727	33.3962
C 5	11.3273	34.7638
C 5	13.7624	34.7943
C 5	16.2376	34.7943
C 5	18.6727	34.7638
C 5	12.5312	35.4973
C 5	15	35.5071
C 5	17.4688	35.4973
C 5	12.5252	36.9359
C 5	15	36.923
C 5	17.4748	36.9359
C 5	11.3301	37.6612
C 5	13.7654	37.6381
C 5	16.2346	37.6381
C 5	18.6699	37.6612
C 5	11.309	39.0508
C 5	13.7668	39.0576
C 5	16.2332	39.0576
C 5	18.691	39.0508
C 5	10.083	39.7748
C 5	12.5398	39.7707
C 5	15	39.7688
C 5	17.4602	39.7707
C 5	19.917	39.7748
C 5	10.0738	41.136
C 5	12.5274	41.1884
C 5	15	41.1819
C 5	17.4726	41.1884
C 5	19.9262	41.136
C 5	11.2857	41.8899
C 5	13.7647	41.8939
C 5	16.2353	41.8939
C 5	18.7143	41.8899
C 5	11.2857	43.3101
C 5	13.7647	43.3061
C 5	16.2353	43.3061
C 5	18.7143	43.3101
C 5	10.0738	44.064
C 5	12.5274	44.0116
C 5	15	44.0181
C 5	17.4726	44.0116
C 5	19.9262	44.064
C 5	10.0829	45.4252
C 5	12.5398	45.4293
C 5	15	45.4312
C 5	17.4602	45.4293
C 5	19.917	45.4252
C 5	11.309	46.1492
C 5	13.7668	46.1424
C 5	16.2332	46.1424
C 5	18.691	46.1492
C 5	11.3301	47.5388
C 5	13.7654	47.5619
C 5	16.2346	47.5619
C 5	18.6699	47.5388
C 5	12.5252	48.2641
C 5	15	48.277
C 5	17.4748	48.2641
C 5	12.5312	49.7027
C 5	15	49.693
C 5	17.4688	49.7027
C 5	11.3273	50.4362
C 5	13.7624	50.4057
C 5	16.2376	50.4057
C 5	18.6727	50.4362
C 5	11.3273	51.8038
C 5	13.7624	51.8343
C 5	16.2376	51.8343
C 5	18.6727	51.8038
C 5	12.5312	52.5373
C 5	15	52.5471
C 5	17.4688	52.5373
C 5	12.5252	53.9759
C 5	15	53.963
C 5	17.4748	53.9759
C 5	11.3301	54.7012
C 5	13.7654	54.6781
C 5	16.2346	54.6781
C 5	18.6699	54.7012
C 5	11.309	56.0908
C 5	13.7668	56.0976
C 5	16.2332	56.0976
C 5	18.691	56.0908
C 5	10.083	56.8148
C 5	12.5398	56.8107
C 5	15	56.8088
C 5	17.4602	56.8107
C 5	19.917	56.8148
C 5	10.0738	58.176
C 5	12.5274	58.2284
C 5	15	58.2219
C 5	17.4726	58.2284
C 5	19.9262	58.176
C 5	11.2857	58.9299
C 5	13.7647	58.9339
C 5	16.2353	58.9339
C 5	18.7143	58.9299
C 5	11.2857	60.3501
C 5	13.7647	60.3461
C 5	16.2353	60.3461
C 5	18.7143	60.3501
C 5	10.0738	61.104
C 5	12.5274	61.0516
C 5	15	61.0581
C 5	17.4726	61.0516
C 5	19.9262	61.104
C 5	10.0829	62.4652
C 5	12.5398	62.4693
C 5	15	62.4712
C 5	17.4602	62.4693
C 5	19.917	62.4652
C 5	11.309	63.1892
C 5	13.7668	63.1824
C 5	16.2332	63.1824
C 5	18.691	63.1892
C 5	11.3301	64.5788
C 5	13.7654	64.6019
C 5	16.2346	64.6019
C 5	18.6699	64.5788
C 5	12.5252	65.3041
C 5	15	65.317
C 5	17.4748	65.3041
C 5	12.5312	66.7427
C 5	15	66.733
C 5	17.4688	66.7427
C 5	11.3273	67.4762
C 5	13.7624	67.4457
C 5	16.2376	67.4457
C 5	18.6727	67.4762
C 5	11.3273	68.8438
C 5	13.7624	68.8743
C 5	16.2376	68.8743
C 5	18.6727	68.8438
C 5	12.5312	69.5773
C 5	15	69.5871
C 5	17.4688	69.5773
C 5	12.5252	71.0159
C 5	15	71.003
C 5	17.4748	71.0159
C 5	11.3301	71.7412
C 5	13.7654	71.7181
C 5	16.2346	71.7181
C 5	18.6699	71.7412
C 5	11.309	73.1308
C 5	13.7668	73.1376
C 5	16.2332	73.1376
C 5	18.691	73.1308
C 5	10.083	73.8548
C 5	12.5398	73.8507
C 5	15	73.8488
C 5	17.4602	73.8507
C 5	19.917	73.8548
C 5	10.0738	75.216
C 5	12.5274	75.2684
C 5	15	75.2619
C 5	17.4726	75.2684
C 5	19.9262	75.216
C 5	11.2857	75.9699
C 5	13.7647	75.9739
C 5	16.2353	75.9739
C 5	18.7143	75.9699
C 5	11.2857	77.3901
C 5	13.7647	77.3861
C 5	16.2353	77.3861
C 5	18.7143	77.3901
C 5	10.0738	78.144
C 5	12.5274	78.0916
C 5	15	78.0981
C 5	17.4726	78.0916
C 5	19.9262	78.144
C 5	10.0829	79.5052
C 5	12.5398	79.5093
C 5	15	79.5112
C 5	17.4602	79.5093
C 5	19.917	79.5052
C 5	11.309	80.2292
C 5	13.7668	80.2224
C 5	16.2332	80.2224
C 5	18.691	80.2292
C 5	11.3301	81.6188
C 5	13.7654	81.6419
C 5	16.2346	81.6419
C 5	18.6699	81.6188
C 5	12.5252	82.3441
C 5	15	82.357
C 5	17.4748	82.3441
C 5	12.5312	83.7827
C 5	15	83.773
C 5	17.4688	83.7827
C 5	11.3273	84.5162
C 5	13.7624	84.4857
C 5	16.2376	84.4857
C 5	18.6727	84.5162
C 5	11.3273	85.8838
C 5	13.7624	85.9143
C 5	16.2376	85.9143
C 5	18.6727	85.8838
C 5	12.5312	86.6173
C 5	15	86.6271
C 5	17.4688	86.6173
C 5	12.5252	88.0559
C 5	15	88.043
C 5	17.4748	88.0559
C 5	11.3301	88.7812
C 5	13.7654	88.7581
C 5	16.2346	88.7581
C 5	18.6699	88.7812
C 5	11.309	90.1708
C 5	13.7668	90.1776
C 5	16.2332	90.1776
C 5	18.691	90.1708
C 5	10.083	90.8948
C 5	12.5398	90.8907
C 5	15	90.8888
C 5	17.4602	90.8907
C 5	19.917	90.8948
C 5	10.0738	92.256
C 5	12.5274	92.3084
C 5	15	92.3019
C 5	17.4726	92.3084
C 5	19.9262	92.256
C 5	11.2857	93.0099
C 5	13.7647	93.0139
C 5	16.2353	93.0139
C 5	18.7143	93.0099
C 5	11.2857	94.4301
C 5	13.7647	94.4261
C 5	16.2353	94.4261
C 5	18.7143	94.4301
C 5	10.0738	95.184
C 5	12.5274	95.1316
C 5	15	95.1381
C 5	17.4726	95.1316
C 5	19.9262	95.184
C 5	10.0829	96.5452
C 5	12.5398	96.5493
C 5	15	96.5512
C 5	17.4602	96.5493
C 5	19.917	96.5452
C 5	11.309	97.2692
C 5	13.7668	97.2624
C 5	16.2332	97.2624
C 5	18.691	97.2692
C 5	11.3301	98.6588
C 5	13.7654	98.6819
C 5	16.2346	98.6819
C 5	18.6699	98.6588
C 5	12.5252	99.3841
C 5	15	99.397
C 5	17.4748	99.3841
C 5	12.5312	100.823
C 5	15	100.813
C 5	17.4688	100.823
C 5	11.3273	101.556
C 5	13.7624	101.526
C 5	16.2376	101.526
C 5	18.6727	101.556
C 5	11.3273	102.924
C 5	13.7624	102.954
C 5	16.2376	102.954
C 5	18.6727	102.924
C 5	12.5312	103.657
C 5	15	103.667
C 5	17.4688	103.657
C 5	12.5252	105.096
C 5	15	105.083
C 5	17.4748	105.096
C 5	11.3301	105.821
C 5	13.7654	105.798
C 5	16.2346	105.798
C 5	18.6699	105.821
C 5	11.309	107.211
C 5	13.7668	107.218
C 5	16.2332	107.218
C 5	18.691	107.211
C 5	10.083	107.935
C 5	12.5398	107.931
C 5	15	107.929
C 5	17.4602	107.931
C 5	19.917	107.935
C 5	10.0738	109.296
C 5	12.5274	109.348
C 5	15	109.342
C 5	17.4726	109.348
C 5	19.9262	109.296
C 5	11.2857	110.05
C 5	13.7647	110.054
C 5	16.2353	110.054
C 5	18.7143	110.05
C 5	11.2857	111.47
C 5	13.7647	111.466
C 5	16.2353	111.466
C 5	18.7143	111.47
C 5	10.0738	112.224
C 5	12.5274	112.172
C 5	15	112.178
C 5	17.4726	112.172
C 5	19.9262	112.224
C 5	10.0829	113.585
C 5	12.5398	113.589
C 5	15	113.591
C 5	17.4602	113.589
C 5	19.917	113.585
C 5	11.309	114.309
C 5	13.7668	114.302
C 5	16.2332	114.302
C 5	18.691	114.309
C 5	11.3301	115.699
C 5	13.7654	115.722
C 5	16.2346	115.722
C 5	18.6699	115.699
C 5	12.5252	116.424
C 5	15	116.437
C 5	17.4748	116.424
C 5	12.5312	117.863
C 5	15	117.853
C 5	17.4688	117.863
C 5	11.3273	118.596
C 5	13.7624	118.566
C 5	16.2376	118.566
C 5	18.6727	118.596
C 5	11.3273	119.964
C 5	13.7624	119.994
C 5	16.2376	119.994
C 5	18.6727	119.964
C 5	12.5312	120.697
C 5	15	120.707
C 5	17.4688	120.697
C 5	12.5252	122.136
C 5	15	122.123
C 5	17.4748	122.136
C 5	11.3301	122.861
C 5	13.7654	122.838
C 5	16.2346	122.838
C 5	18.6699	122.861
C 5	11.309	124.251
C 5	13.7668	124.258
C 5	16.2332	124.258
C 5	18.691	124.251
C 5	10.083	124.975
C 5	12.5398	124.971
C 5	15	124.969
C 5	17.4602	124.971
C 5	19.917	124.975
C 5	10.0738	126.336
C 5	12.5274	126.388
C 5	15	126.382
C 5	17.4726	126.388
C 5	19.9262	126.336
C 5	11.2857	127.09
C 5	13.7647	127.094
C 5	16.2353	127.094
C 5	18.7143	127.09
C 5	11.2857	128.51
C 5	13.7647	128.506
C 5	16.2353	128.506
C 5	18.7143	128.51
C 5	10.0738	129.264
C 5	12.5274	129.212
C 5	15	129.218
C 5	17.4726	129.212
C 5	19.9262	129.264
C 5	10.0829	130.625
C 5	12.5398	130.629
C 5	15	130.631
C 5	17.4602	130.629
C 5	19.917	130.625
C 5	11.309	131.349
C 5	13.7668	131.342
C 5	16.2332	131.342
C 5	18.691	131.349
C 5	11.3301	132.739
C 5	13.7654	132.762
C 5	16.2346	132.762
C 5	18.6699	132.739
C 5	12.5252	133.464
C 5	15	133.477
C 5	17.4748	133.464
C 5	12.5312	134.903
C 5	15	134.893
C 5	17.4688	134.903
C 5	11.3273	135.636
C 5	13.7624	135.606
C 5	16.2376	135.606
C 5	18.6727	135.636
C 5	11.3273	137.004
C 5	13.7624	137.034
C 5	16.2376	137.034
C 5	18.6727	137.004
C 5	12.5312	137.737
C 5	15	137.747
C 5	17.4688	137.737
C 5	12.5252	139.176
C 5	15	139.163
C 5	17.4748	139.176
C 5	11.3301	139.901
C 5	13.7654	139.878
C 5	16.2346	139.878
C 5	18.6699	139.901
C 5	11.309	141.291
C 5	13.7668	141.298
C 5	16.2332	141.298
C 5	18.691	141.291
C 5	10.083	142.015
C 5	12.5398	142.011
C 5	15	142.009
C 5	17.4602	142.011
C 5	19.917	142.015
C 5	10.0738	143.376
C 5	12.5274	143.428
C 5	15	143.422
C 5	17.4726	143.428
C 5	19.9262	143.376
C 5	11.2857	144.13
C 5	13.7647	144.134
C 5	16.2353	144.134
C 5	18.7143	144.13
C 5	11.2857	145.55
C 5	13.7647	145.546
C 5	16.2353	145.546
C 5	18.7143	145.55
C 5	10.0738	146.304
C 5	12.5274	146.252
C 5	15	146.258
C 5	17.4726	146.252
C 5	19.9262	146.304
C 5	10.0829	147.665
C 5	12.5398	147.669
C 5	15	147.671
C 5	17.4602	147.669
C 5	19.917	147.665
C 5	11.309	148.389
C 5	13.7668	148.382
C 5	16.2332	148.382
C 5	18.691	148.389
C 5	11.3301	149.779
C 5	13.7654	149.802
C 5	16.2346	149.802
C 5	18.6699	149.779
C 5	12.5252	150.504
C 5	15	150.517
C 5	17.4748	150.504
C 5	12.5312	151.943
C 5	15	151.933
C 5	17.4688	151.943
C 5	11.3273	152.676
C 5	13.7624	152.646
C 5	16.2376	152.646
C 5	18.6727	152.676
C 5	11.3273	154.044
C 5	13.7624	154.074
C 5	16.2376	154.074
C 5	18.6727	154.044
C 5	12.5312	154.777
C 5	15	154.787
C 5	17.4688	154.777
C 5	12.5252	156.216
C 5	15	156.203
C 5	17.4748	156.216
C 5	11.3301	156.941
C 5	13.7654	156.918
C 5	16.2346	156.918
C 5	18.6699	156.941
C 5	11.309	158.331
C 5	13.7668	158.338
C 5	16.2332	158.338
C 5	18.691	158.331
C 5	10.083	159.055
C 5	12.5398	159.051
C 5	15	159.049
C 5	17.4602	159.051
C 5	19.917	159.055
C 5	10.0738	160.416
C 5	12.5274	160.468
C 5	15	160.462
C 5	17.4726	160.468
C 5	19.9262	160.416
C 5	11.2857	161.17
C 5	13.7647	161.174
C 5	16.2353	161.174
C 5	18.7143	161.17
C 5	11.2857	162.59
C 5	13.7647	162.586
C 5	16.2353	162.586
C 5	18.7143	162.59
C 5	10.0738	163.344
C 5	12.5274	163.292
C 5	15	163.298
C 5	17.4726	163.292
C 5	19.9262	163.344
C 5	10.0829	164.705
C 5	12.5398	164.709
C 5	15	164.711
C 5	17.4602	164.709
C 5	19.917	164.705
C 5	11.309	165.429
C 5	13.7668	165.422
C 5	16.2332	165.422
C 5	18.691	165.429
C 5	11.3301	166.819
C 5	13.7654	166.842
C 5	16.2346	166.842
C 5	18.6699	166.819
C 5	12.5252	167.544
C 5	15	167.557
C 5	17.4748	167.544
C 5	12.5312	168.983
C 5	15	168.973
C 5	17.4688	168.983
C 5	11.3273	169.716
C 5	13.7624	169.686
C 5	16.2376	169.686
C 5	18.6727	169.716
C 5	11.3273	171.084
C 5	13.7624	171.114
C 5	16.2376	171.114
C 5	18.6727	171.084
C 5	12.5312	171.817
C 5	15	171.827
C 5	17.4688	171.817
C 5	12.5252	173.256
C 5	15	173.243
C 5	17.4748	173.256
C 5	11.3301	173.981
C 5	13.7654	173.958
C 5	16.2346	173.958
C 5	18.6699	173.981
C 5	11.309	175.371
C 5	13.7668	175.378
C 5	16.2332	175.378
C 5	18.691	175.371
C 5	10.083	176.095
C 5	12.5398	176.091
C 5	15	176.089
C 5	17.4602	176.091
C 5	19.917	176.095
C 5	10.0738	177.456
C 5	12.5274	177.508
C 5	15	177.502
C 5	17.4726	177.508
C 5	19.9262	177.456
C 5	11.2857	178.21
C 5	13.7647	178.214
C 5	16.2353	178.214
C 5	18.7143	178.21
C 5	11.2857	179.63
C 5	13.7647	179.626
C 5	16.2353	179.626
C 5	18.7143	179.63
C 5	10.0738	180.384
C 5	12.5274	180.332
C 5	15	180.338
C 5	17.4726	180.332
C 5	19.9262	180.384
C 5	10.0829	181.745
C 5	12.5398	181.749
C 5	15	181.751
C 5	17.4602	181.749
C 5	19.917	181.745
C 5	11.309	182.469
C 5	13.7668	182.462
C 5	16.2332	182.462
C 5	18.691	182.469
C 5	11.3301	183.859
C 5	13.7654	183.882
C 5	16.2346	183.882
C 5	18.6699	183.859
C 5	12.5252	184.584
C 5	15	184.597
C 5	17.4748	184.584
C 5	12.5312	186.023
C 5	15	186.013
C 5	17.4688	186.023
C 5	11.3273	186.756
C 5	13.7624	186.726
C 5	16.2376	186.726
C 5	18.6727	186.756
C 5	11.3273	188.124
C 5	13.7624	188.154
C 5	16.2376	188.154
C 5	18.6727	188.124
C 5	12.5312	188.857
C 5	15	188.867
C 5	17.4688	188.857
C 5	12.5252	190.296
C 5	15	190.283
C 5	17.4748	190.296
C 5	11.3301	191.021
C 5	13.7654	190.998
C 5	16.2346	190.998
C 5	18.6699	191.021
C 5	11.309	192.411
C 5	13.7668	192.418
C 5	16.2332	192.418
C 5	18.691	192.411
C 5	10.083	193.135
C 5	12.5398	193.131
C 5	15	193.129
C 5	17.4602	193.131
C 5	19.917	193.135
C 5	10.0738	194.496
C 5	12.5274	194.548
C 5	15	194.542
C 5	17.4726	194.548
C 5	19.9262	194.496
C 5	11.2857	195.25
C 5	13.7647	195.254
C 5	16.2353	195.254
C 5	18.7143	195.25
C 5	11.2857	196.67
C 5	13.7647	196.666
C 5	16.2353	196.666
C 5	18.7143	196.67
C 5	10.0738	197.424
C 5	12.5274	197.372
C 5	15	197.378
C 5	17.4726	197.372
C 5	19.9262	197.424
C 5	10.0829	198.785
C 5	12.5398	198.789
C 5	15	198.791
C 5	17.4602	198.789
C 5	19.917	198.785
C 5	11.309	199.509
C 5	13.7668	199.502
C 5	16.2332	199.502
C 5	18.691	199.509
C 5	11.3301	200.899
C 5	13.7654	200.922
C 5	16.2346	200.922
C 5	18.6699	200.899
C 5	12.5252	201.624
C 5	15	201.637
C 5	17.4748	201.624
C 5	12.5312	203.063
C 5	15	203.053
C 5	17.4688	203.063
C 5	11.3273	203.796
C 5	13.7624	203.766
C 5	16.2376	203.766
C 5	18.6727	203.796